LTspice 24.0.12 for Windows
Circuit: * C:\Users\Kosuke Okuno\Documents\GitHub\LTspicePowerSim\example\3Ph-TTP-PFC_VOC_SVPWM.asc
Start Time: Sun Jan  5 13:59:10 2025
solver = Normal
Maximum thread count: 4
tnom = 27
temp = 27
method = modified trap
WARNING: Less than two connections to node iout.  This node is used by b:x16:1.
WARNING: Less than two connections to node nc_01.  This node is used by b:x48:3.
WARNING: Less than two connections to node da_.  This node is used by b:x7:4.
WARNING: Less than two connections to node db_.  This node is used by b:x7:5.
WARNING: Less than two connections to node dc_.  This node is used by b:x7:6.
WARNING: Less than two connections to node x7:x1:saw.  This node is used by v:x7:x1:1.
WARNING: Less than two connections to node x7:x2:saw.  This node is used by v:x7:x2:1.
WARNING: Less than two connections to node x7:x3:saw.  This node is used by v:x7:x3:1.
Direct Newton iteration failed to find .op point.  (Use ".option noopiter" to skip.)
Starting Gmin stepping
Increasing initial diagonal Gmin to 100
Increasing initial diagonal Gmin to 1000
Increasing initial diagonal Gmin to 10000
Gmin = 10000
Gmin = 1073.74
Gmin = 115.292
Gmin = 12.3794
Gmin = 1.32923
Gmin = 0.142725
Gmin = 0.015325
Gmin = 0.0016455
vernier = 0.5
vernier = 0.25
vernier = 0.125
Gmin = 0.000990264
vernier = 0.0625
vernier = 0.03125
vernier = 0.015625
vernier = 0.0078125
Gmin = 0.000999634
vernier = 0.00390625
vernier = 0.00195312
vernier = 0.000976562
vernier = 0.000488281
Gmin = 0.000999999
Gmin = 0
Gmin stepping succeeded in finding the operating point.

